LTspice 24.1.9 for Windows
Circuit: C:\Users\juana\OneDrive\Documentos\GitHub\Anal-gica\HDT2\circuito4.net
Start Time: Mon Aug 18 23:11:21 2025
solver = Normal
Maximum thread count: 12
tnom = 27
temp = 27
method = trap
Direct Newton iteration for .op point succeeded.
Total elapsed time: 0.091 seconds.

Files loaded:
C:\Users\juana\OneDrive\Documentos\GitHub\Anal-gica\HDT2\circuito4.net
C:\Users\juana\AppData\Local\LTspice\lib\cmp\standard.bjt

