LTspice 24.1.9 for Windows
Circuit: C:\Users\juana\OneDrive\Documentos\GitHub\Anal-gica\HDT2\circuito3\corrientes.net
Start Time: Tue Aug 19 09:13:30 2025
solver = Normal
Maximum thread count: 12
tnom = 27
temp = 27
method = trap
Direct Newton iteration for .op point succeeded.
Total elapsed time: 0.145 seconds.

Files loaded:
C:\Users\juana\OneDrive\Documentos\GitHub\Anal-gica\HDT2\circuito3\corrientes.net
C:\Users\juana\AppData\Local\LTspice\lib\cmp\standard.bjt

