LTspice 24.1.9 for Windows
Circuit: C:\Users\juana\OneDrive\Documentos\GitHub\Anal-gica\HDT2\circuito1\Circuito1.net
Start Time: Tue Aug 19 09:24:30 2025
solver = Normal
Maximum thread count: 12
tnom = 27
temp = 27
method = trap
Direct Newton iteration for .op point succeeded.
Total elapsed time: 0.082 seconds.

Files loaded:
C:\Users\juana\OneDrive\Documentos\GitHub\Anal-gica\HDT2\circuito1\Circuito1.net
C:\Users\juana\AppData\Local\LTspice\lib\cmp\standard.bjt

